
     RDKit          3D

 66 67  0  0  0  0  0  0  0  0999 V2000
   -2.1680    6.0270    6.5970 C   0  0  2  0  0  0  0  0  0  0  0  0
   -2.6070    4.6990    5.9830 C   0  0  2  0  0  0  0  0  0  0  0  0
   -2.6710    3.6350    7.1080 C   0  0  0  0  0  0  0  0  0  0  0  0
   -2.7170    3.9900    8.2580 O   0  0  0  0  0  0  0  0  0  0  0  0
   -2.6790    2.1990    6.7970 N   0  0  0  0  0  0  0  0  0  0  0  0
   -2.6210    1.7320    5.4070 C   0  0  2  0  0  0  0  0  0  0  0  0
   -4.0460    1.6880    4.7860 C   0  0  2  0  0  0  0  0  0  0  0  0
   -4.3110    0.2850    4.2260 C   0  0  2  0  0  0  0  0  0  0  0  0
   -4.4440    0.3660    2.6380 C   0  0  2  0  0  0  0  0  0  0  0  0
   -3.4170   -0.5790    1.9870 C   0  0  2  0  0  0  0  0  0  0  0  0
   -3.5750   -0.5280    0.5110 N   0  0  0  0  0  0  0  0  0  0  0  0
   -2.5670   -1.2130   -0.3710 C   0  0  0  0  0  0  0  0  0  0  0  0
   -2.6930   -1.1760   -1.6510 N   0  0  0  0  0  0  0  0  0  0  0  0
   -1.4280   -1.9290    0.2380 N   0  0  0  0  0  0  0  0  0  0  0  0
   -2.7370    1.2050    7.9570 C   0  0  1  0  0  0  0  0  0  0  0  0
   -4.1080    0.7990    8.2260 C   0  0  2  0  0  0  0  0  0  0  0  0
   -4.0760   -0.1410    9.4430 C   0  0  2  0  0  0  0  0  0  0  0  0
   -3.3270   -1.2520    9.2680 N   0  0  2  0  0  0  0  0  0  0  0  0
   -3.3210   -1.8860   10.3850 C   0  0  2  0  0  0  0  0  0  0  0  0
   -2.5240   -3.2510   10.2790 C   0  0  2  0  0  0  0  0  0  0  0  0
   -3.1510   -4.2660   11.3020 C   0  0  0  0  0  0  0  0  0  0  0  0
   -2.9400   -5.6260   11.1500 C   0  0  0  0  0  0  0  0  0  0  0  0
   -3.5030   -6.5160   12.0630 C   0  0  0  0  0  0  0  0  0  0  0  0
   -4.2700   -6.0410   13.1090 C   0  0  0  0  0  0  0  0  0  0  0  0
   -4.4820   -4.6840   13.2590 C   0  0  0  0  0  0  0  0  0  0  0  0
   -3.9200   -3.7940   12.3520 C   0  0  0  0  0  0  0  0  0  0  0  0
   -2.0180   -0.9430    8.9000 C   0  0  2  0  0  0  0  0  0  0  0  0
   -1.9410   -0.0330    7.6370 C   0  0  2  0  0  0  0  0  0  0  0  0
   -2.1180    6.7740    5.8320 H   0  0  0  0  0  0  0  0  0  0  0  0
   -1.2040    5.9120    7.0460 H   0  0  0  0  0  0  0  0  0  0  0  0
   -2.8750    6.3260    7.3420 H   0  0  0  0  0  0  0  0  0  0  0  0
   -1.9010    4.3950    5.2390 H   0  0  0  0  0  0  0  0  0  0  0  0
   -3.5680    4.8060    5.5240 H   0  0  0  0  0  0  0  0  0  0  0  0
   -2.1970    0.7510    5.3830 H   0  0  0  0  0  0  0  0  0  0  0  0
   -2.0180    2.4100    4.8400 H   0  0  0  0  0  0  0  0  0  0  0  0
   -4.1140    2.4060    3.9960 H   0  0  0  0  0  0  0  0  0  0  0  0
   -4.7720    1.9180    5.5380 H   0  0  0  0  0  0  0  0  0  0  0  0
   -5.2190   -0.0990    4.6410 H   0  0  0  0  0  0  0  0  0  0  0  0
   -3.5000   -0.3640    4.4860 H   0  0  0  0  0  0  0  0  0  0  0  0
   -4.2600    1.3690    2.3160 H   0  0  0  0  0  0  0  0  0  0  0  0
   -5.4320    0.0730    2.3480 H   0  0  0  0  0  0  0  0  0  0  0  0
   -3.5810   -1.5790    2.3300 H   0  0  0  0  0  0  0  0  0  0  0  0
   -2.4260   -0.2720    2.2530 H   0  0  0  0  0  0  0  0  0  0  0  0
   -4.3360   -0.0480    0.1120 H   0  0  0  0  0  0  0  0  0  0  0  0
   -3.4530   -0.6980   -2.0570 H   0  0  0  0  0  0  0  0  0  0  0  0
   -1.3310   -1.9570    1.2180 H   0  0  0  0  0  0  0  0  0  0  0  0
   -0.7650   -2.3770   -0.3350 H   0  0  0  0  0  0  0  0  0  0  0  0
   -2.3280    1.6970    8.8150 H   0  0  0  0  0  0  0  0  0  0  0  0
   -4.5100    0.2850    7.3780 H   0  0  0  0  0  0  0  0  0  0  0  0
   -4.7250    1.6510    8.4220 H   0  0  0  0  0  0  0  0  0  0  0  0
   -5.0800   -0.4430    9.6590 H   0  0  0  0  0  0  0  0  0  0  0  0
   -3.6250    0.4090   10.2420 H   0  0  0  0  0  0  0  0  0  0  0  0
   -3.7250   -1.8160    8.5170 H   0  0  0  0  0  0  0  0  0  0  0  0
   -4.3310   -2.0950   10.6700 H   0  0  0  0  0  0  0  0  0  0  0  0
   -2.8350   -1.2720   11.1140 H   0  0  0  0  0  0  0  0  0  0  0  0
   -1.4940   -3.0880   10.5160 H   0  0  0  0  0  0  0  0  0  0  0  0
   -2.5900   -3.6420    9.2850 H   0  0  0  0  0  0  0  0  0  0  0  0
   -2.3680   -5.9790   10.3660 H   0  0  0  0  0  0  0  0  0  0  0  0
   -3.3480   -7.5310   11.9570 H   0  0  0  0  0  0  0  0  0  0  0  0
   -4.6860   -6.7040   13.7830 H   0  0  0  0  0  0  0  0  0  0  0  0
   -5.0560   -4.3340   14.0420 H   0  0  0  0  0  0  0  0  0  0  0  0
   -4.0770   -2.7800   12.4610 H   0  0  0  0  0  0  0  0  0  0  0  0
   -1.4970   -1.8550    8.6950 H   0  0  0  0  0  0  0  0  0  0  0  0
   -1.5750   -0.4040    9.7110 H   0  0  0  0  0  0  0  0  0  0  0  0
   -0.9230    0.2260    7.4280 H   0  0  0  0  0  0  0  0  0  0  0  0
   -2.3290   -0.5320    6.7740 H   0  0  0  0  0  0  0  0  0  0  0  0
  2  1  1  0
  3  2  1  0
  4  3  2  0
  5  3  1  0
  6  5  1  0
  7  6  1  0
  8  7  1  0
  9  8  1  0
 10  9  1  0
 11 10  1  0
 12 11  1  0
 13 12  1  0
 14 12  1  0
 15  5  1  0
 16 15  1  0
 17 16  1  0
 18 17  1  0
 19 18  1  0
 20 19  1  0
 21 20  1  0
 22 21  2  0
 23 22  1  0
 24 23  2  0
 25 24  1  0
 26 25  2  0
 26 21  1  0
 27 18  1  0
 28 27  1  0
 28 15  1  0
  1 29  1  6
 30  1  1  0
 31  1  1  0
  2 32  1  6
 33  2  1  0
  6 34  1  1
 35  6  1  0
  7 36  1  6
 37  7  1  0
  8 38  1  1
 39  8  1  0
  9 40  1  6
 41  9  1  0
 10 42  1  1
 43 10  1  0
 44 11  1  0
 45 13  1  0
 46 14  1  0
 47 14  1  0
 15 48  1  1
 16 49  1  6
 50 16  1  0
 17 51  1  1
 52 17  1  0
 18 53  1  6
 19 54  1  1
 55 19  1  0
 20 56  1  1
 57 20  1  0
 58 22  1  0
 59 23  1  0
 60 24  1  0
 61 25  1  0
 62 26  1  0
 27 63  1  6
 64 27  1  0
 28 65  1  6
 66 28  1  0
M  CHG  2  12   1  18   1
M  END
$$$$
