
     RDKit          3D

 24 24  0  0  0  0  0  0  0  0999 V2000
   -3.6780   -2.7570    9.1890 O   0  0  0  0  0  0  0  0  0  0  0  0
   -2.8620   -2.2730    8.1210 C   0  0  0  0  0  0  0  0  0  0  0  0
   -1.6420   -1.7220    8.4080 C   0  0  0  0  0  0  0  0  0  0  0  0
   -3.2930   -2.3610    6.8040 C   0  0  0  0  0  0  0  0  0  0  0  0
   -4.5630   -2.9320    6.5010 O   0  0  0  0  0  0  0  0  0  0  0  0
   -2.4840   -1.8830    5.7490 C   0  0  0  0  0  0  0  0  0  0  0  0
   -1.2730   -1.3410    6.0290 C   0  0  0  0  0  0  0  0  0  0  0  0
   -0.8230   -1.2490    7.3880 C   0  0  0  0  0  0  0  0  0  0  0  0
    0.5060   -0.6360    7.7400 C   0  0  1  0  0  0  0  0  0  0  0  0
    0.8350    0.2840    6.7320 O   0  0  0  0  0  0  0  0  0  0  0  0
    0.2850    0.1440    9.1010 C   0  0  2  0  0  0  0  0  0  0  0  0
    1.2770    1.2000    9.3740 N   0  0  2  0  0  0  0  0  0  0  0  0
   -3.3780   -2.6930   10.0740 H   0  0  0  0  0  0  0  0  0  0  0  0
   -1.3270   -1.6580    9.3890 H   0  0  0  0  0  0  0  0  0  0  0  0
   -5.1090   -3.2530    7.1900 H   0  0  0  0  0  0  0  0  0  0  0  0
   -2.8120   -1.9470    4.7730 H   0  0  0  0  0  0  0  0  0  0  0  0
   -0.6750   -0.9930    5.2640 H   0  0  0  0  0  0  0  0  0  0  0  0
    1.2840   -1.3660    7.8310 H   0  0  0  0  0  0  0  0  0  0  0  0
    0.1270    0.9430    6.6530 H   0  0  0  0  0  0  0  0  0  0  0  0
    0.3240   -0.5650    9.9020 H   0  0  0  0  0  0  0  0  0  0  0  0
   -0.6630    0.6330    9.0180 H   0  0  0  0  0  0  0  0  0  0  0  0
    2.2040    0.7810    9.4620 H   0  0  0  0  0  0  0  0  0  0  0  0
    1.0360    1.6770   10.2430 H   0  0  0  0  0  0  0  0  0  0  0  0
    1.2790    1.8720    8.6070 H   0  0  0  0  0  0  0  0  0  0  0  0
  2  1  1  0
  3  2  2  0
  4  2  1  0
  5  4  1  0
  6  4  2  0
  7  6  1  0
  8  7  2  0
  8  3  1  0
  9  8  1  0
 10  9  1  0
 11  9  1  0
 12 11  1  0
 13  1  1  0
 14  3  1  0
 15  5  1  0
 16  6  1  0
 17  7  1  0
  9 18  1  1
 19 10  1  0
 11 20  1  1
 21 11  1  0
 12 22  1  1
 23 12  1  0
 24 12  1  0
M  CHG  1  12   1
M  END
$$$$
